file 38174323 1545302823                                        
version 2
run compression-0-20181220-11:46:48-22310
attr configname compression
attr datetime 20181220-11:46:48
attr experiment compression
attr inifile omnetpp.ini
attr iterationvars ""
attr iterationvarsf ""
attr measurement ""
attr network CRan
attr processid 22310
attr repetition 0
attr replication #0
attr resultdir results
attr runnumber 0
attr seedset 0
param **.bbu.enableCompression true

vector 0 CRan.rrh[4] delayStat:vector ETV
attr "" mean
attr source delay
vector 1 CRan.rrh[0] delayStat:vector ETV
attr "" mean
attr source delay
vector 2 CRan.rrh[3] delayStat:vector ETV
attr "" mean
attr source delay
vector 3 CRan.rrh[2] delayStat:vector ETV
attr "" mean
attr source delay
vector 4 CRan.rrh[1] delayStat:vector ETV
attr "" mean
attr source delay
0	764 1392513 21 819760 0.587416666667 16409.809100234506 32768 0.533916666667 153.78345599576 1734387.8527319 130062280.92816
2	1393277 1406675 33 820719 0.98166427606 16427.541860535823 32768 0.526333333333 84.515025804786 991133.67208123 43161920.442978
1	2799952 1406237 26 821577 0.714843075805 16442.808052850288 32768 0.521333333333 135.19590173395 1679181.359897 143627543.9164
4	4206189 1388932 62 822985 1.620768351067 16473.050470215585 32768 0.521666666667 62.278926254711 793291.58831456 26492826.279086
3	5595121 1404169 52 823203 1.464051049969 16477.025421776963 32768 0.522166666667 65.077539194937 794366.61705079 26253112.796683
0	6999290 366265 819795 1026524 16410.309100234506 20570.809100234506 8322 63.396575064934 148.4622649657 870701.34519833 95503332.706502
1	7365555 363428 821591 1026560 16443.308052850288 20571.308052850288 8257 82.569456130103 137.77950040535 910323.15515216 101319132.89699
2	7728983 357818 820762 1026552 16428.041860535823 20571.16408984241 8182 0.520416666667 46.868068394776 181709.8560569 5361356.9401825
3	8086801 360459 823212 1026541 16477.525421776963 20571.025421776963 8188 24.929382910939 76.522119531597 455131.84708845 26077270.490169
4	8447260 356352 823000 1026558 16473.550470215585 20571.283125304894 8137 0.530333333333 48.77581339747 173127.18635974 4873900.7400285
1	8803612 1470983 1026599 1841431 20571.808052850288 36955.308052850288 32768 42.290442830023 142.74472964081 3129082.7464305 319113857.87304
0	10274595 1469325 1026561 1841768 20571.309100234506 36963.30337678905 32768 0.599010278728 192.18253525471 3023150.8462848 353520381.26747
3	11743920 1462134 1026577 1844886 20571.525421776963 37026.480019933532 32768 0.531549200895 88.910083438928 1151431.2135871 61216156.28256
2	13206054 1457567 1026587 1845377 20571.66408984241 37035.557903420578 32768 0.520416666667 90.152597598285 907891.82767786 39308100.9735
4	14663621 1453248 1026598 1854678 20571.783125304894 37226.74937162176 32768 0.520083333333 73.859224163361 560582.87323167 17709216.76781
0	16116869 838073 1841789 2319848 36963.80337678905 46547.833832621723 19024 0.522333333333 55.356628388475 350594.17698929 8782784.077303
1	16954942 861179 1841456 2319845 36955.808052850288 46547.808052850288 19185 57.984838977449 198.36760808824 2233191.348809 278851903.06321
2	17816121 847296 1845396 2319865 37036.057903420578 46548.180659932092 18948 0.522666666667 79.702749196539 658087.68828592 29789095.983978
3	18663417 850734 1844920 2319856 37026.980019933532 46547.964417286219 18981 0.532833333333 123.11843882273 1277548.1644585 107834561.34919
4	19514151 826292 1854705 2319853 37227.24937162176 46547.931388785536 18517 0.524315779698 66.199001812493 524620.20440104 20834567.217484
1	20340443 1470884 2319874 3138182 46548.308052850288 62931.808052850288 32768 95.968919847687 259.01903511412 5917835.9671829 1105417650.3325
3	21811327 1470931 2319881 3138187 46548.464417286219 62931.964417286219 32768 27.010560192299 121.75723741171 2692678.6652137 233279466.37595
4	23282258 1468972 2319879 3139993 46548.431388785536 62966.725931121842 32768 0.525333333333 171.41944257717 2549629.8594019 260455212.63846
2	24751230 1466638 2319889 3140957 46548.680659932092 62987.237395413489 32768 0.524083333333 65.231392973817 863610.7346472 28673069.271235
0	26217868 1452094 2319877 3143095 46548.333832621723 63029.367770712845 32768 0.521 98.994233037023 949132.71217804 45428776.418781
1	27669962 1469785 3138208 3956219 62932.308052850288 79320.049809128891 32768 0.5855 206.36163239009 3733227.4447534 532457911.93481
4	29139747 1470928 3140018 3957654 62967.225931121842 79350.725931121842 32768 126.58424201519 208.82608579539 5598432.6119423 965745139.78147
2	30610675 1470477 3140984 3959105 62987.737395413489 79378.030725240596 32768 0.573333333333 129.75901880138 2434790.3799779 217610606.22587
3	32081152 1467358 3138210 3959985 62932.464417286219 79393.532364724386 32768 0.524 173.83140487429 2011049.5045844 194992169.51126
0	33548510 1470968 3143128 3961029 63029.867770712845 79413.367770712845 32768 30.638709620901 116.76305904454 2433100.0366476 189551432.548
0	35019478 627186 3961058 4310098 79413.867770712845 86399.867770712845 13973 32.583153031373 108.09880621748 1019824.827646 77479588.738989
1	35646664 635591 3956234 4310090 79320.549809128891 86399.549809128891 14159 13.82254154369 65.387980942314 611816.27016426 27636200.687582
2	36282255 630355 3959136 4310088 79378.530725240596 86399.530725240596 14043 26.327038373845 80.975149567902 788734.38646473 46861341.093354
3	36912610 628937 3960004 4310089 79394.032364724386 86399.532364724386 14012 66.627571422498 164.86220437239 1641011.2048301 201576196.36116
4	37541547 632775 3957676 4310097 79351.225931121842 86399.725931121842 14098 135.91634018561 176.27043893278 2170709.3303667 334953785.3121

