file 10046082 1545304722                                        
version 2
run compression-30-0-20181220-12:18:37-23102
attr configname compression-30
attr datetime 20181220-12:18:37
attr experiment compression-30
attr inifile omnetpp.ini
attr iterationvars ""
attr iterationvarsf ""
attr measurement ""
attr network CRan
attr processid 23102
attr repetition 0
attr replication #0
attr resultdir results
attr runnumber 0
attr seedset 0
param **.compressionPercentage 30
param **.bbu.speed 5000
param **.as.interArrivalTime 360ms
param **.bbu.enableCompression true

vector 0 CRan.rrh[4] delayStat:vector ETV
attr "" mean
attr source delay
vector 1 CRan.rrh[0] delayStat:vector ETV
attr "" mean
attr source delay
vector 2 CRan.rrh[3] delayStat:vector ETV
attr "" mean
attr source delay
vector 3 CRan.rrh[2] delayStat:vector ETV
attr "" mean
attr source delay
vector 4 CRan.rrh[1] delayStat:vector ETV
attr "" mean
attr source delay
0	866 1366762 21 815260 1.6458 58699.436236712173 32768 1.5202 30.762421164708 185745.99898716 1625286.5970795
1	1367628 1365798 22 817199 2.101535072897 58848.203125899335 32768 1.5202 41.839558485054 184575.67154116 1701993.6064327
2	2733426 1364558 31 820087 2.937691393815 59056.015797815932 32768 1.5202 29.222017593139 175065.96133749 1440694.0854438
3	4097984 1366063 48 820935 4.403183779889 59115.392112826543 32768 1.5202 41.081954493215 177302.37284665 1536915.7352447
4	5464047 1364927 55 822975 5.473366063842 59250.484361489638 32768 1.5202 34.954049057918 176242.55295164 1508260.3052442
0	6828974 658292 815284 1197758 58700.936236712173 86399.605931663586 15455 1.5202 31.922520031832 89793.588859603 836466.71252989
1	7487266 650013 817230 1197752 58850.807659369205 86398.915073136115 15282 1.5202 28.738559337671 83366.135248913 701990.03023298
2	8137279 639608 820117 1197757 59057.515797815932 86399.552873136115 15045 1.5202 34.945099014509 83686.554855954 769412.92190704
3	8776887 644200 820955 1197753 59116.892112826543 86399.226473136115 15164 1.5202 24.945136883117 76874.644309569 573235.2027632
4	9421087 624994 822986 1197754 59251.984361489638 86399.490873136115 14758 1.5202 25.639381977723 73108.465850248 541897.61527629

