file 9366357 1545304858                                         
version 2
run General-0-20181220-12:20:54-23176
attr configname General
attr datetime 20181220-12:20:54
attr experiment General
attr inifile omnetpp.ini
attr iterationvars ""
attr iterationvarsf ""
attr measurement ""
attr network CRan
attr processid 23176
attr repetition 0
attr replication #0
attr resultdir results
attr runnumber 0
attr seedset 0
param **.bbu.speed 5000
param **.as.interArrivalTime 360ms

vector 0 CRan.rrh[4] delayStat:vector ETV
attr "" mean
attr source delay
vector 1 CRan.rrh[0] delayStat:vector ETV
attr "" mean
attr source delay
vector 2 CRan.rrh[3] delayStat:vector ETV
attr "" mean
attr source delay
vector 3 CRan.rrh[2] delayStat:vector ETV
attr "" mean
attr source delay
vector 4 CRan.rrh[1] delayStat:vector ETV
attr "" mean
attr source delay
0	775 1272879 5 815234 0.1996 58697.404602153901 32768 0.02 4.676783857587 15423.996056514 13933.023223008
1	1273654 1273023 10 817173 0.656735072897 58846.312125899335 32768 0.02 5.401790214118 15236.898108147 13629.956085928
2	2546677 1273017 19 819957 1.550291393815 59042.657360282564 32768 0.02 4.942955084905 15524.364210755 14169.507341537
3	3819694 1273382 37 820870 3.140783779889 59109.59757231786 32768 0.02 5.225439715256 15336.153604545 13905.108109579
4	5093076 1272927 45 822812 3.977566063842 59238.748687963311 32768 0.02 5.345448146373 15535.122514126 14250.267237005
0	6366003 612372 815255 1197730 58698.265936016498 86397.357873136115 15459 0.02 4.073826396146 7067.6846959449 6142.8664156148
1	6978375 605182 817227 1197747 58849.599325899335 86398.397273136115 15283 0.02 4.174738426929 6965.368161587 5993.3076215245
2	7583557 596842 819972 1197762 59043.732413245485 86399.426673136115 15046 0.02 4.053706408718 6865.2934564541 5834.0475368014
3	8180399 601031 820879 1197767 59110.262762569661 86399.785473136115 15166 0.02 4.255576418293 6838.6886475129 5894.2758047838
4	8781430 584926 822829 1197754 59240.070575059186 86398.666473136115 14759 0.02 3.963350183084 6752.7771096117 5858.1056484255

